*
* Short channel models from CMOS Circuit Design, Layout, and Simulation,
* 50nm BSIM4 models VDD=1V, see CMOSedu.com
*
.model  N_50n  nmos  level = 54
+binunit = 1            paramchk= 1            mobmod  = 0          
+capmod  = 2            igcmod  = 1            igbmod  = 1            geomod  = 0          
+diomod  = 1            rdsmod  = 0            rbodymod= 1            rgatemod= 1          
+permod  = 1            acnqsmod= 0            trnqsmod= 0          
+tnom    = 27           toxe    = 1.4e-009     toxp    = 7e-010       toxm    = 1.4e-009   
+epsrox  = 3.9          wint    = 5e-009       lint    = 1.2e-008   
+ll      = 0            wl      = 0            lln     = 1            wln     = 1          
+lw      = 0            ww      = 0            lwn     = 1            wwn     = 1          
+lwl     = 0            wwl     = 0            xpart   = 0            toxref  = 1.4e-009   
+vth0    = 0.22         k1      = 0.35         k2      = 0.05         k3      = 0          
+k3b     = 0            w0      = 2.5e-006     dvt0    = 2.8          dvt1    = 0.52       
+dvt2    = -0.032       dvt0w   = 0            dvt1w   = 0            dvt2w   = 0          
+dsub    = 2            minv    = 0.05         voffl   = 0            dvtp0   = 1e-007     
+dvtp1   = 0.05         lpe0    = 5.75e-008    lpeb    = 2.3e-010     xj      = 2e-008     
+ngate   = 5e+020       ndep    = 2.8e+018     nsd     = 1e+020       phin    = 0          
+cdsc    = 0.0002       cdscb   = 0            cdscd   = 0            cit     = 0          
+voff    = -0.15        nfactor = 1.2          eta0    = 0.15         etab    = 0          
+vfb     = -0.55        u0      = 0.032        ua      = 1.6e-010     ub      = 1.1e-017   
+uc      = -3e-011      vsat    = 1.1e+005     a0      = 2            ags     = 1e-020     
+a1      = 0            a2      = 1            b0      = -1e-020      b1      = 0          
+keta    = 0.04         dwg     = 0            dwb     = 0            pclm    = 0.18       
+pdiblc1 = 0.028        pdiblc2 = 0.022        pdiblcb = -0.005       drout   = 0.45       
+pvag    = 1e-020       delta   = 0.01         pscbe1  = 8.14e+008    pscbe2  = 1e-007     
+fprout  = 0.2          pdits   = 0.2          pditsd  = 0.23         pditsl  = 2.3e+006   
+rsh     = 3            rdsw    = 150          rsw     = 150          rdw     = 150        
+rdswmin = 0            rdwmin  = 0            rswmin  = 0            prwg    = 0          
+prwb    = 6.8e-011     wr      = 1            alpha0  = 0.074        alpha1  = 0.005      
+beta0   = 30           agidl   = 0.0002       bgidl   = 2.1e+009     cgidl   = 0.0002     
+egidl   = 0.8          
+aigbacc = 0.012        bigbacc = 0.0028       cigbacc = 0.002
+nigbacc = 1            aigbinv = 0.014        bigbinv = 0.004        cigbinv = 0.004
+eigbinv = 1.1          nigbinv = 3            aigc    = 0.017        bigc    = 0.0028
+cigc    = 0.002        aigsd   = 0.017        bigsd   = 0.0028       cigsd   = 0.002
+nigc    = 1            poxedge = 1            pigcd   = 1            ntox    = 1
+xrcrg1  = 12           xrcrg2  = 5          
+cgso    = 6.238e-010   cgdo    = 6.238e-010   cgbo    = 2.56e-011    cgdl    = 2.495e-10     
+cgsl    = 2.495e-10    ckappas = 0.02         ckappad = 0.02         acde    = 1          
+moin    = 15           noff    = 0.9          voffcv  = 0.02       
+kt1     = -0.21        kt1l    = 0.0           kt2     = -0.042        ute     = -1.5
+ua1     = 1e-009       ub1     = -3.5e-019     uc1     = 0             prt     = 0
+at      = 53000
+fnoimod = 1            tnoimod = 0          
+jss     = 0.0001       jsws    = 1e-011       jswgs   = 1e-010       njs     = 1          
+ijthsfwd= 0.01         ijthsrev= 0.001        bvs     = 10           xjbvs   = 1          
+jsd     = 0.0001       jswd    = 1e-011       jswgd   = 1e-010       njd     = 1          
+ijthdfwd= 0.01         ijthdrev= 0.001        bvd     = 10           xjbvd   = 1          
+pbs     = 1            cjs     = 0.0005       mjs     = 0.5          pbsws   = 1          
+cjsws   = 5e-010       mjsws   = 0.33         pbswgs  = 1            cjswgs  = 5e-010     
+mjswgs  = 0.33         pbd     = 1            cjd     = 0.0005       mjd     = 0.5        
+pbswd   = 1            cjswd   = 5e-010       mjswd   = 0.33         pbswgd  = 1          
+cjswgd  = 5e-010       mjswgd  = 0.33         tpb     = 0.005        tcj     = 0.001      
+tpbsw   = 0.005        tcjsw   = 0.001        tpbswg  = 0.005        tcjswg  = 0.001      
+xtis    = 3            xtid    = 3          
+dmcg    = 0e-006       dmci    = 0e-006       dmdg    = 0e-006       dmcgt   = 0e-007     
+dwj     = 0e-008     	xgw     = 0e-007       xgl     = 0e-008     
+rshg    = 0.4          gbmin   = 1e-010       rbpb    = 5            rbpd    = 15         
+rbps    = 15           rbdb    = 15           rbsb    = 15           ngcon   = 1
*
.model  P_50n  pmos  level = 54
+binunit = 1            paramchk= 1            mobmod  = 0          
+capmod  = 2            igcmod  = 1            igbmod  = 1            geomod  = 0          
+diomod  = 1            rdsmod  = 0            rbodymod= 1            rgatemod= 1          
+permod  = 1            acnqsmod= 0            trnqsmod= 0          
+tnom    = 27           toxe    = 1.4e-009     toxp    = 7e-010       toxm    = 1.4e-009   
+epsrox  = 3.9          wint    = 5e-009       lint    = 1.2e-008   
+ll      = 0            wl      = 0            lln     = 1            wln     = 1          
+lw      = 0            ww      = 0            lwn     = 1            wwn     = 1          
+lwl     = 0            wwl     = 0            xpart   = 0            toxref  = 1.4e-009   
+vth0    = -0.22        k1      = 0.39         k2      = 0.05         k3      = 0          
+k3b     = 0            w0      = 2.5e-006     dvt0    = 3.9          dvt1    = 0.635        
+dvt2    = -0.032       dvt0w   = 0            dvt1w   = 0            dvt2w   = 0          
+dsub    = 0.7          minv    = 0.05         voffl   = 0            dvtp0   = 0.5e-008     
+dvtp1   = 0.05         lpe0    = 5.75e-008    lpeb    = 2.3e-010     xj      = 2e-008     
+ngate   = 5e+020       ndep    = 2.8e+018     nsd     = 1e+020       phin    = 0          
+cdsc    = 0.000258     cdscb   = 0            cdscd   = 6.1e-008     cit     = 0          
+voff    = -0.15        nfactor = 2            eta0    = 0.15         etab    = 0          
+vfb     = 0.55         u0      = 0.0095       ua      = 1.6e-009     ub      = 8e-018     
+uc      = 4.6e-013     vsat    = 90000        a0      = 1.2          ags     = 1e-020     
+a1      = 0            a2      = 1            b0      = -1e-020      b1      = 0          
+keta    = -0.047       dwg     = 0            dwb     = 0            pclm    = 0.55       
+pdiblc1 = 0.03         pdiblc2 = 0.0055       pdiblcb = 3.4e-008     drout   = 0.56       
+pvag    = 1e-020       delta   = 0.014        pscbe1  = 8.14e+008    pscbe2  = 9.58e-007  
+fprout  = 0.2          pdits   = 0.2          pditsd  = 0.23         pditsl  = 2.3e+006   
+rsh     = 3            rdsw    = 250          rsw     = 160          rdw     = 160        
+rdswmin = 0            rdwmin  = 0            rswmin  = 0            prwg    = 3.22e-008  
+prwb    = 6.8e-011     wr      = 1            alpha0  = 0.074        alpha1  = 0.005      
+beta0   = 30           agidl   = 0.0002       bgidl   = 2.1e+009     cgidl   = 0.0002     
+egidl   = 0.8          
+aigbacc = 0.012        bigbacc = 0.0028       cigbacc = 0.002
+nigbacc = 1            aigbinv = 0.014        bigbinv = 0.004        cigbinv = 0.004
+eigbinv = 1.1          nigbinv = 3            aigc    = 0.69         bigc    = 0.0012
+cigc    = 0.0008       aigsd   = 0.0087       bigsd   = 0.0012       cigsd   = 0.0008
+nigc    = 1            poxedge = 1            pigcd   = 1            ntox    = 1
+xrcrg1  = 12           xrcrg2  = 5          
+cgso    = 7.43e-010    cgdo    = 7.43e-010    cgbo    = 2.56e-011    cgdl    = 1e-014     
+cgsl    = 1e-014       ckappas = 0.5          ckappad = 0.5          acde    = 1          
+moin    = 15           noff    = 0.9          voffcv  = 0.02       
+kt1     = -0.19        kt1l    = 0            kt2     = -0.052        ute     = -1.5
+ua1     = -1e-009      ub1     = 2e-018       uc1     = 0             prt     = 0
+at      = 33000
+fnoimod = 1            tnoimod = 0          
+jss     = 0.0001       jsws    = 1e-011       jswgs   = 1e-010       njs     = 1          
+ijthsfwd= 0.01         ijthsrev= 0.001        bvs     = 10           xjbvs   = 1          
+jsd     = 0.0001       jswd    = 1e-011       jswgd   = 1e-010       njd     = 1          
+ijthdfwd= 0.01         ijthdrev= 0.001        bvd     = 10           xjbvd   = 1          
+pbs     = 1            cjs     = 0.0005       mjs     = 0.5          pbsws   = 1          
+cjsws   = 5e-010       mjsws   = 0.33         pbswgs  = 1            cjswgs  = 5e-010     
+mjswgs  = 0.33         pbd     = 1            cjd     = 0.0005       mjd     = 0.5        
+pbswd   = 1            cjswd   = 5e-010       mjswd   = 0.33         pbswgd  = 1          
+cjswgd  = 5e-010       mjswgd  = 0.33         tpb     = 0.005        tcj     = 0.001      
+tpbsw   = 0.005        tcjsw   = 0.001        tpbswg  = 0.005        tcjswg  = 0.001      
+xtis    = 3            xtid    = 3          
+dmcg    = 0e-006       dmci    = 0e-006       dmdg    = 0e-006       dmcgt   = 0e-007     
+dwj     = 0e-008     	xgw     = 0e-007       xgl     = 0e-008     
+rshg    = 0.4          gbmin   = 1e-010       rbpb    = 5            rbpd    = 15         
+rbps    = 15           rbdb    = 15           rbsb    = 15           ngcon   = 1   


.MODEL NMOS NMOS
.MODEL PMOS PMOS

.GLOBAL vdd!

*.TEMP 25.0

*.OPTION INGOLD=2 ARTIST=2 PSF=2 MEASOUT=1 PARHIER=LOCAL PROBE=0 MARCH=2 ACCURACY=1 POST

.SUBCKT nmos_rvt d g s b PARAMS: w=270e-9 l=20e-9 nfin=12
.param width={nfin*400n}
.param length={50n}
.param perimeter={3*length}
.param area={1.5*length*width}

mn d g s b N_50n L={length} W={width} PD={perimeter} AD={area}
.ENDS

.SUBCKT pmos_rvt d g s b PARAMS: w=270e-9 l=20e-9 nfin=12
.param width={nfin*400n}
.param length={2*50n}
.param perimeter={3*length}
.param area={1.5*length*width}

mp d g s b P_50n L={length} W={width} PD={perimeter} AD={area}
.ENDS

r0 net8_M1_3840_132 net8_M1_3840_168 3.5999999999999996
c0 net8_M1_3840_132 0 0.0036f
c1 net8_M1_3840_168 0 0.0036f
r1 net8_M1_3840_168 net8_M1_3840_248 8.0
c2 net8_M1_3840_168 0 0.008f
c3 net8_M1_3840_248 0 0.008f
r2 net8_M1_3840_248 net8_M1_3840_252 0.4
c4 net8_M1_3840_248 0 0.0004f
c5 net8_M1_3840_252 0 0.0004f
r3 net8_M1_3840_252 net8_M1_3840_332 8.0
c6 net8_M1_3840_252 0 0.008f
c7 net8_M1_3840_332 0 0.008f
r4 net8_M1_3840_332 net8_M1_3840_412 8.0
c8 net8_M1_3840_332 0 0.008f
c9 net8_M1_3840_412 0 0.008f
r5 net8_M1_3840_412 net8_M1_3840_420 0.8
c10 net8_M1_3840_412 0 0.0008f
c11 net8_M1_3840_420 0 0.0008f
r6 net8_M1_3840_420 net8_M1_3840_500 8.0
c12 net8_M1_3840_420 0 0.008f
c13 net8_M1_3840_500 0 0.008f
r7 net8_M1_3840_500 net8_M1_3840_580 8.0
c14 net8_M1_3840_500 0 0.008f
c15 net8_M1_3840_580 0 0.008f
r8 net8_M1_3840_580 net8_M1_3840_660 8.0
c16 net8_M1_3840_580 0 0.008f
c17 net8_M1_3840_660 0 0.008f
r9 net8_M1_3840_660 net8_M1_3840_740 8.0
c18 net8_M1_3840_660 0 0.008f
c19 net8_M1_3840_740 0 0.008f
r10 net8_M1_3840_740 net8_M1_3840_792 5.2
c20 net8_M1_3840_740 0 0.0052f
c21 net8_M1_3840_792 0 0.0052f
r11 vdd_M1_3920_132 vdd_M1_3920_168 3.5999999999999996
c22 vdd_M1_3920_132 0 0.0036f
c23 vdd_M1_3920_168 0 0.0036f
r12 vdd_M1_3920_168 vdd_M1_3920_248 8.0
c24 vdd_M1_3920_168 0 0.008f
c25 vdd_M1_3920_248 0 0.008f
r13 vdd_M1_3920_248 vdd_M1_3920_328 8.0
c26 vdd_M1_3920_248 0 0.008f
c27 vdd_M1_3920_328 0 0.008f
r14 vdd_M1_3920_328 vdd_M1_3920_336 0.8
c28 vdd_M1_3920_328 0 0.0008f
c29 vdd_M1_3920_336 0 0.0008f
r15 vdd_M1_3920_336 vdd_M1_3920_416 8.0
c30 vdd_M1_3920_336 0 0.008f
c31 vdd_M1_3920_416 0 0.008f
r16 vdd_M1_3920_416 vdd_M1_3920_462 4.6
c32 vdd_M1_3920_416 0 0.0046f
c33 vdd_M1_3920_462 0 0.0046f
r17 vdd_M1_3920_462 vdd_M1_3920_542 8.0
c34 vdd_M1_3920_462 0 0.008f
c35 vdd_M1_3920_542 0 0.008f
r18 vdd_M1_3920_542 vdd_M1_3920_588 4.6
c36 vdd_M1_3920_542 0 0.0046f
c37 vdd_M1_3920_588 0 0.0046f
r19 vdd_M1_3920_588 vdd_M1_3920_668 8.0
c38 vdd_M1_3920_588 0 0.008f
c39 vdd_M1_3920_668 0 0.008f
r20 vdd_M1_3920_668 vdd_M1_3920_748 8.0
c40 vdd_M1_3920_668 0 0.008f
c41 vdd_M1_3920_748 0 0.008f
r21 vdd_M1_3920_748 vdd_M1_3920_792 4.3999999999999995
c42 vdd_M1_3920_748 0 0.0044f
c43 vdd_M1_3920_792 0 0.0044f
r22 net8_M1_3760_132 net8_M1_3760_212 8.0
c44 net8_M1_3760_132 0 0.008f
c45 net8_M1_3760_212 0 0.008f
r23 net8_M1_3760_212 net8_M1_3760_252 4.0
c46 net8_M1_3760_212 0 0.004f
c47 net8_M1_3760_252 0 0.004f
r24 net8_M1_3760_252 net8_M1_3760_332 8.0
c48 net8_M1_3760_252 0 0.008f
c49 net8_M1_3760_332 0 0.008f
r25 net8_M1_3760_332 net8_M1_3760_336 0.4
c50 net8_M1_3760_332 0 0.0004f
c51 net8_M1_3760_336 0 0.0004f
r26 net8_M1_3760_336 net8_M1_3760_416 8.0
c52 net8_M1_3760_336 0 0.008f
c53 net8_M1_3760_416 0 0.008f
r27 net8_M1_3760_416 net8_M1_3760_420 0.4
c54 net8_M1_3760_416 0 0.0004f
c55 net8_M1_3760_420 0 0.0004f
r28 net8_M1_3760_420 net8_M1_3760_462 4.2
c56 net8_M1_3760_420 0 0.004200000000000001f
c57 net8_M1_3760_462 0 0.004200000000000001f
r29 net8_M1_3760_462 net8_M1_3760_542 8.0
c58 net8_M1_3760_462 0 0.008f
c59 net8_M1_3760_542 0 0.008f
r30 net8_M1_3760_542 net8_M1_3760_588 4.6
c60 net8_M1_3760_542 0 0.0046f
c61 net8_M1_3760_588 0 0.0046f
r31 net8_M1_3760_588 net8_M1_3760_668 8.0
c62 net8_M1_3760_588 0 0.008f
c63 net8_M1_3760_668 0 0.008f
r32 net8_M1_3760_668 net8_M1_3760_748 8.0
c64 net8_M1_3760_668 0 0.008f
c65 net8_M1_3760_748 0 0.008f
r33 net8_M1_3760_748 net8_M1_3760_792 4.3999999999999995
c66 net8_M1_3760_748 0 0.0044f
c67 net8_M1_3760_792 0 0.0044f
r34 net8_M1_3120_132 net8_M1_3120_168 3.5999999999999996
c68 net8_M1_3120_132 0 0.0036f
c69 net8_M1_3120_168 0 0.0036f
r35 net8_M1_3120_168 net8_M1_3120_248 8.0
c70 net8_M1_3120_168 0 0.008f
c71 net8_M1_3120_248 0 0.008f
r36 net8_M1_3120_248 net8_M1_3120_328 8.0
c72 net8_M1_3120_248 0 0.008f
c73 net8_M1_3120_328 0 0.008f
r37 net8_M1_3120_328 net8_M1_3120_336 0.8
c74 net8_M1_3120_328 0 0.0008f
c75 net8_M1_3120_336 0 0.0008f
r38 net8_M1_3120_336 net8_M1_3120_416 8.0
c76 net8_M1_3120_336 0 0.008f
c77 net8_M1_3120_416 0 0.008f
r39 net8_M1_3120_416 net8_M1_3120_496 8.0
c78 net8_M1_3120_416 0 0.008f
c79 net8_M1_3120_496 0 0.008f
r40 net8_M1_3120_496 net8_M1_3120_576 8.0
c80 net8_M1_3120_496 0 0.008f
c81 net8_M1_3120_576 0 0.008f
r41 net8_M1_3120_576 net8_M1_3120_588 1.2
c82 net8_M1_3120_576 0 0.0012000000000000001f
c83 net8_M1_3120_588 0 0.0012000000000000001f
r42 net8_M1_3120_588 net8_M1_3120_668 8.0
c84 net8_M1_3120_588 0 0.008f
c85 net8_M1_3120_668 0 0.008f
r43 net8_M1_3120_668 net8_M1_3120_748 8.0
c86 net8_M1_3120_668 0 0.008f
c87 net8_M1_3120_748 0 0.008f
r44 net8_M1_3120_748 net8_M1_3120_792 4.3999999999999995
c88 net8_M1_3120_748 0 0.0044f
c89 net8_M1_3120_792 0 0.0044f
r45 vdd_M1_3200_132 vdd_M1_3200_168 3.5999999999999996
c90 vdd_M1_3200_132 0 0.0036f
c91 vdd_M1_3200_168 0 0.0036f
r46 vdd_M1_3200_168 vdd_M1_3200_248 8.0
c92 vdd_M1_3200_168 0 0.008f
c93 vdd_M1_3200_248 0 0.008f
r47 vdd_M1_3200_248 vdd_M1_3200_328 8.0
c94 vdd_M1_3200_248 0 0.008f
c95 vdd_M1_3200_328 0 0.008f
r48 vdd_M1_3200_328 vdd_M1_3200_336 0.8
c96 vdd_M1_3200_328 0 0.0008f
c97 vdd_M1_3200_336 0 0.0008f
r49 vdd_M1_3200_336 vdd_M1_3200_416 8.0
c98 vdd_M1_3200_336 0 0.008f
c99 vdd_M1_3200_416 0 0.008f
r50 vdd_M1_3200_416 vdd_M1_3200_420 0.4
c100 vdd_M1_3200_416 0 0.0004f
c101 vdd_M1_3200_420 0 0.0004f
r51 vdd_M1_3200_420 vdd_M1_3200_462 4.2
c102 vdd_M1_3200_420 0 0.004200000000000001f
c103 vdd_M1_3200_462 0 0.004200000000000001f
r52 vdd_M1_3200_462 vdd_M1_3200_542 8.0
c104 vdd_M1_3200_462 0 0.008f
c105 vdd_M1_3200_542 0 0.008f
r53 vdd_M1_3200_542 vdd_M1_3200_588 4.6
c106 vdd_M1_3200_542 0 0.0046f
c107 vdd_M1_3200_588 0 0.0046f
r54 vdd_M1_3200_588 vdd_M1_3200_668 8.0
c108 vdd_M1_3200_588 0 0.008f
c109 vdd_M1_3200_668 0 0.008f
r55 vdd_M1_3200_668 vdd_M1_3200_748 8.0
c110 vdd_M1_3200_668 0 0.008f
c111 vdd_M1_3200_748 0 0.008f
r56 vdd_M1_3200_748 vdd_M1_3200_792 4.3999999999999995
c112 vdd_M1_3200_748 0 0.0044f
c113 vdd_M1_3200_792 0 0.0044f
r57 vout_M1_3040_132 vout_M1_3040_212 8.0
c114 vout_M1_3040_132 0 0.008f
c115 vout_M1_3040_212 0 0.008f
r58 vout_M1_3040_212 vout_M1_3040_252 4.0
c116 vout_M1_3040_212 0 0.004f
c117 vout_M1_3040_252 0 0.004f
r59 vout_M1_3040_252 vout_M1_3040_332 8.0
c118 vout_M1_3040_252 0 0.008f
c119 vout_M1_3040_332 0 0.008f
r60 vout_M1_3040_332 vout_M1_3040_336 0.4
c120 vout_M1_3040_332 0 0.0004f
c121 vout_M1_3040_336 0 0.0004f
r61 vout_M1_3040_336 vout_M1_3040_416 8.0
c122 vout_M1_3040_336 0 0.008f
c123 vout_M1_3040_416 0 0.008f
r62 vout_M1_3040_416 vout_M1_3040_462 4.6
c124 vout_M1_3040_416 0 0.0046f
c125 vout_M1_3040_462 0 0.0046f
r63 vout_M1_3040_462 vout_M1_3040_504 4.2
c126 vout_M1_3040_462 0 0.004200000000000001f
c127 vout_M1_3040_504 0 0.004200000000000001f
r64 vout_M1_3040_504 vout_M1_3040_584 8.0
c128 vout_M1_3040_504 0 0.008f
c129 vout_M1_3040_584 0 0.008f
r65 vout_M1_3040_584 vout_M1_3040_588 0.4
c130 vout_M1_3040_584 0 0.0004f
c131 vout_M1_3040_588 0 0.0004f
r66 vout_M1_3040_588 vout_M1_3040_668 8.0
c132 vout_M1_3040_588 0 0.008f
c133 vout_M1_3040_668 0 0.008f
r67 vout_M1_3040_668 vout_M1_3040_748 8.0
c134 vout_M1_3040_668 0 0.008f
c135 vout_M1_3040_748 0 0.008f
r68 vout_M1_3040_748 vout_M1_3040_792 4.3999999999999995
c136 vout_M1_3040_748 0 0.0044f
c137 vout_M1_3040_792 0 0.0044f
r69 id_M1_400_132 id_M1_400_168 3.5999999999999996
c138 id_M1_400_132 0 0.0036f
c139 id_M1_400_168 0 0.0036f
r70 id_M1_400_168 id_M1_400_248 8.0
c140 id_M1_400_168 0 0.008f
c141 id_M1_400_248 0 0.008f
r71 id_M1_400_248 id_M1_400_252 0.4
c142 id_M1_400_248 0 0.0004f
c143 id_M1_400_252 0 0.0004f
r72 id_M1_400_252 id_M1_400_332 8.0
c144 id_M1_400_252 0 0.008f
c145 id_M1_400_332 0 0.008f
r73 id_M1_400_332 id_M1_400_412 8.0
c146 id_M1_400_332 0 0.008f
c147 id_M1_400_412 0 0.008f
r74 id_M1_400_412 id_M1_400_492 8.0
c148 id_M1_400_412 0 0.008f
c149 id_M1_400_492 0 0.008f
r75 id_M1_400_492 id_M1_400_504 1.2
c150 id_M1_400_492 0 0.0012000000000000001f
c151 id_M1_400_504 0 0.0012000000000000001f
r76 id_M1_400_504 id_M1_400_584 8.0
c152 id_M1_400_504 0 0.008f
c153 id_M1_400_584 0 0.008f
r77 id_M1_400_584 id_M1_400_664 8.0
c154 id_M1_400_584 0 0.008f
c155 id_M1_400_664 0 0.008f
r78 id_M1_400_664 id_M1_400_744 8.0
c156 id_M1_400_664 0 0.008f
c157 id_M1_400_744 0 0.008f
r79 id_M1_400_744 id_M1_400_792 4.8
c158 id_M1_400_744 0 0.0048000000000000004f
c159 id_M1_400_792 0 0.0048000000000000004f
r80 vss_M1_320_132 vss_M1_320_168 3.5999999999999996
c160 vss_M1_320_132 0 0.0036f
c161 vss_M1_320_168 0 0.0036f
r81 vss_M1_320_168 vss_M1_320_248 8.0
c162 vss_M1_320_168 0 0.008f
c163 vss_M1_320_248 0 0.008f
r82 vss_M1_320_248 vss_M1_320_328 8.0
c164 vss_M1_320_248 0 0.008f
c165 vss_M1_320_328 0 0.008f
r83 vss_M1_320_328 vss_M1_320_336 0.8
c166 vss_M1_320_328 0 0.0008f
c167 vss_M1_320_336 0 0.0008f
r84 vss_M1_320_336 vss_M1_320_416 8.0
c168 vss_M1_320_336 0 0.008f
c169 vss_M1_320_416 0 0.008f
r85 vss_M1_320_416 vss_M1_320_420 0.4
c170 vss_M1_320_416 0 0.0004f
c171 vss_M1_320_420 0 0.0004f
r86 vss_M1_320_420 vss_M1_320_462 4.2
c172 vss_M1_320_420 0 0.004200000000000001f
c173 vss_M1_320_462 0 0.004200000000000001f
r87 vss_M1_320_462 vss_M1_320_542 8.0
c174 vss_M1_320_462 0 0.008f
c175 vss_M1_320_542 0 0.008f
r88 vss_M1_320_542 vss_M1_320_588 4.6
c176 vss_M1_320_542 0 0.0046f
c177 vss_M1_320_588 0 0.0046f
r89 vss_M1_320_588 vss_M1_320_668 8.0
c178 vss_M1_320_588 0 0.008f
c179 vss_M1_320_668 0 0.008f
r90 vss_M1_320_668 vss_M1_320_748 8.0
c180 vss_M1_320_668 0 0.008f
c181 vss_M1_320_748 0 0.008f
r91 vss_M1_320_748 vss_M1_320_792 4.3999999999999995
c182 vss_M1_320_748 0 0.0044f
c183 vss_M1_320_792 0 0.0044f
r92 id_M1_480_132 id_M1_480_212 8.0
c184 id_M1_480_132 0 0.008f
c185 id_M1_480_212 0 0.008f
r93 id_M1_480_212 id_M1_480_252 4.0
c186 id_M1_480_212 0 0.004f
c187 id_M1_480_252 0 0.004f
r94 id_M1_480_252 id_M1_480_332 8.0
c188 id_M1_480_252 0 0.008f
c189 id_M1_480_332 0 0.008f
r95 id_M1_480_332 id_M1_480_336 0.4
c190 id_M1_480_332 0 0.0004f
c191 id_M1_480_336 0 0.0004f
r96 id_M1_480_336 id_M1_480_416 8.0
c192 id_M1_480_336 0 0.008f
c193 id_M1_480_416 0 0.008f
r97 id_M1_480_416 id_M1_480_462 4.6
c194 id_M1_480_416 0 0.0046f
c195 id_M1_480_462 0 0.0046f
r98 id_M1_480_462 id_M1_480_504 4.2
c196 id_M1_480_462 0 0.004200000000000001f
c197 id_M1_480_504 0 0.004200000000000001f
r99 id_M1_480_504 id_M1_480_584 8.0
c198 id_M1_480_504 0 0.008f
c199 id_M1_480_584 0 0.008f
r100 id_M1_480_584 id_M1_480_588 0.4
c200 id_M1_480_584 0 0.0004f
c201 id_M1_480_588 0 0.0004f
r101 id_M1_480_588 id_M1_480_668 8.0
c202 id_M1_480_588 0 0.008f
c203 id_M1_480_668 0 0.008f
r102 id_M1_480_668 id_M1_480_748 8.0
c204 id_M1_480_668 0 0.008f
c205 id_M1_480_748 0 0.008f
r103 id_M1_480_748 id_M1_480_792 4.3999999999999995
c206 id_M1_480_748 0 0.0044f
c207 id_M1_480_792 0 0.0044f
r104 id_M1_1040_132 id_M1_1040_168 3.5999999999999996
c208 id_M1_1040_132 0 0.0036f
c209 id_M1_1040_168 0 0.0036f
r105 id_M1_1040_168 id_M1_1040_248 8.0
c210 id_M1_1040_168 0 0.008f
c211 id_M1_1040_248 0 0.008f
r106 id_M1_1040_248 id_M1_1040_252 0.4
c212 id_M1_1040_248 0 0.0004f
c213 id_M1_1040_252 0 0.0004f
r107 id_M1_1040_252 id_M1_1040_332 8.0
c214 id_M1_1040_252 0 0.008f
c215 id_M1_1040_332 0 0.008f
r108 id_M1_1040_332 id_M1_1040_412 8.0
c216 id_M1_1040_332 0 0.008f
c217 id_M1_1040_412 0 0.008f
r109 id_M1_1040_412 id_M1_1040_492 8.0
c218 id_M1_1040_412 0 0.008f
c219 id_M1_1040_492 0 0.008f
r110 id_M1_1040_492 id_M1_1040_504 1.2
c220 id_M1_1040_492 0 0.0012000000000000001f
c221 id_M1_1040_504 0 0.0012000000000000001f
r111 id_M1_1040_504 id_M1_1040_584 8.0
c222 id_M1_1040_504 0 0.008f
c223 id_M1_1040_584 0 0.008f
r112 id_M1_1040_584 id_M1_1040_664 8.0
c224 id_M1_1040_584 0 0.008f
c225 id_M1_1040_664 0 0.008f
r113 id_M1_1040_664 id_M1_1040_744 8.0
c226 id_M1_1040_664 0 0.008f
c227 id_M1_1040_744 0 0.008f
r114 id_M1_1040_744 id_M1_1040_792 4.8
c228 id_M1_1040_744 0 0.0048000000000000004f
c229 id_M1_1040_792 0 0.0048000000000000004f
r115 vss_M1_960_132 vss_M1_960_168 3.5999999999999996
c230 vss_M1_960_132 0 0.0036f
c231 vss_M1_960_168 0 0.0036f
r116 vss_M1_960_168 vss_M1_960_248 8.0
c232 vss_M1_960_168 0 0.008f
c233 vss_M1_960_248 0 0.008f
r117 vss_M1_960_248 vss_M1_960_328 8.0
c234 vss_M1_960_248 0 0.008f
c235 vss_M1_960_328 0 0.008f
r118 vss_M1_960_328 vss_M1_960_336 0.8
c236 vss_M1_960_328 0 0.0008f
c237 vss_M1_960_336 0 0.0008f
r119 vss_M1_960_336 vss_M1_960_416 8.0
c238 vss_M1_960_336 0 0.008f
c239 vss_M1_960_416 0 0.008f
r120 vss_M1_960_416 vss_M1_960_420 0.4
c240 vss_M1_960_416 0 0.0004f
c241 vss_M1_960_420 0 0.0004f
r121 vss_M1_960_420 vss_M1_960_462 4.2
c242 vss_M1_960_420 0 0.004200000000000001f
c243 vss_M1_960_462 0 0.004200000000000001f
r122 vss_M1_960_462 vss_M1_960_542 8.0
c244 vss_M1_960_462 0 0.008f
c245 vss_M1_960_542 0 0.008f
r123 vss_M1_960_542 vss_M1_960_588 4.6
c246 vss_M1_960_542 0 0.0046f
c247 vss_M1_960_588 0 0.0046f
r124 vss_M1_960_588 vss_M1_960_668 8.0
c248 vss_M1_960_588 0 0.008f
c249 vss_M1_960_668 0 0.008f
r125 vss_M1_960_668 vss_M1_960_748 8.0
c250 vss_M1_960_668 0 0.008f
c251 vss_M1_960_748 0 0.008f
r126 vss_M1_960_748 vss_M1_960_792 4.3999999999999995
c252 vss_M1_960_748 0 0.0044f
c253 vss_M1_960_792 0 0.0044f
r127 net10_M1_1120_132 net10_M1_1120_212 8.0
c254 net10_M1_1120_132 0 0.008f
c255 net10_M1_1120_212 0 0.008f
r128 net10_M1_1120_212 net10_M1_1120_292 8.0
c256 net10_M1_1120_212 0 0.008f
c257 net10_M1_1120_292 0 0.008f
r129 net10_M1_1120_292 net10_M1_1120_336 4.3999999999999995
c258 net10_M1_1120_292 0 0.0044f
c259 net10_M1_1120_336 0 0.0044f
r130 net10_M1_1120_336 net10_M1_1120_416 8.0
c260 net10_M1_1120_336 0 0.008f
c261 net10_M1_1120_416 0 0.008f
r131 net10_M1_1120_416 net10_M1_1120_462 4.6
c262 net10_M1_1120_416 0 0.0046f
c263 net10_M1_1120_462 0 0.0046f
r132 net10_M1_1120_462 net10_M1_1120_542 8.0
c264 net10_M1_1120_462 0 0.008f
c265 net10_M1_1120_542 0 0.008f
r133 net10_M1_1120_542 net10_M1_1120_588 4.6
c266 net10_M1_1120_542 0 0.0046f
c267 net10_M1_1120_588 0 0.0046f
r134 net10_M1_1120_588 net10_M1_1120_668 8.0
c268 net10_M1_1120_588 0 0.008f
c269 net10_M1_1120_668 0 0.008f
r135 net10_M1_1120_668 net10_M1_1120_748 8.0
c270 net10_M1_1120_668 0 0.008f
c271 net10_M1_1120_748 0 0.008f
r136 net10_M1_1120_748 net10_M1_1120_792 4.3999999999999995
c272 net10_M1_1120_748 0 0.0044f
c273 net10_M1_1120_792 0 0.0044f
r137 vinp_M1_1760_132 vinp_M1_1760_168 3.5999999999999996
c274 vinp_M1_1760_132 0 0.0036f
c275 vinp_M1_1760_168 0 0.0036f
r138 vinp_M1_1760_168 vinp_M1_1760_248 8.0
c276 vinp_M1_1760_168 0 0.008f
c277 vinp_M1_1760_248 0 0.008f
r139 vinp_M1_1760_248 vinp_M1_1760_328 8.0
c278 vinp_M1_1760_248 0 0.008f
c279 vinp_M1_1760_328 0 0.008f
r140 vinp_M1_1760_328 vinp_M1_1760_408 8.0
c280 vinp_M1_1760_328 0 0.008f
c281 vinp_M1_1760_408 0 0.008f
r141 vinp_M1_1760_408 vinp_M1_1760_420 1.2
c282 vinp_M1_1760_408 0 0.0012000000000000001f
c283 vinp_M1_1760_420 0 0.0012000000000000001f
r142 vinp_M1_1760_420 vinp_M1_1760_500 8.0
c284 vinp_M1_1760_420 0 0.008f
c285 vinp_M1_1760_500 0 0.008f
r143 vinp_M1_1760_500 vinp_M1_1760_580 8.0
c286 vinp_M1_1760_500 0 0.008f
c287 vinp_M1_1760_580 0 0.008f
r144 vinp_M1_1760_580 vinp_M1_1760_660 8.0
c288 vinp_M1_1760_580 0 0.008f
c289 vinp_M1_1760_660 0 0.008f
r145 vinp_M1_1760_660 vinp_M1_1760_740 8.0
c290 vinp_M1_1760_660 0 0.008f
c291 vinp_M1_1760_740 0 0.008f
r146 vinp_M1_1760_740 vinp_M1_1760_792 5.2
c292 vinp_M1_1760_740 0 0.0052f
c293 vinp_M1_1760_792 0 0.0052f
r147 net10_M1_1680_132 net10_M1_1680_168 3.5999999999999996
c294 net10_M1_1680_132 0 0.0036f
c295 net10_M1_1680_168 0 0.0036f
r148 net10_M1_1680_168 net10_M1_1680_248 8.0
c296 net10_M1_1680_168 0 0.008f
c297 net10_M1_1680_248 0 0.008f
r149 net10_M1_1680_248 net10_M1_1680_328 8.0
c298 net10_M1_1680_248 0 0.008f
c299 net10_M1_1680_328 0 0.008f
r150 net10_M1_1680_328 net10_M1_1680_336 0.8
c300 net10_M1_1680_328 0 0.0008f
c301 net10_M1_1680_336 0 0.0008f
r151 net10_M1_1680_336 net10_M1_1680_416 8.0
c302 net10_M1_1680_336 0 0.008f
c303 net10_M1_1680_416 0 0.008f
r152 net10_M1_1680_416 net10_M1_1680_462 4.6
c304 net10_M1_1680_416 0 0.0046f
c305 net10_M1_1680_462 0 0.0046f
r153 net10_M1_1680_462 net10_M1_1680_542 8.0
c306 net10_M1_1680_462 0 0.008f
c307 net10_M1_1680_542 0 0.008f
r154 net10_M1_1680_542 net10_M1_1680_588 4.6
c308 net10_M1_1680_542 0 0.0046f
c309 net10_M1_1680_588 0 0.0046f
r155 net10_M1_1680_588 net10_M1_1680_668 8.0
c310 net10_M1_1680_588 0 0.008f
c311 net10_M1_1680_668 0 0.008f
r156 net10_M1_1680_668 net10_M1_1680_748 8.0
c312 net10_M1_1680_668 0 0.008f
c313 net10_M1_1680_748 0 0.008f
r157 net10_M1_1680_748 net10_M1_1680_792 4.3999999999999995
c314 net10_M1_1680_748 0 0.0044f
c315 net10_M1_1680_792 0 0.0044f
r158 net8_M1_1840_132 net8_M1_1840_212 8.0
c316 net8_M1_1840_132 0 0.008f
c317 net8_M1_1840_212 0 0.008f
r159 net8_M1_1840_212 net8_M1_1840_252 4.0
c318 net8_M1_1840_212 0 0.004f
c319 net8_M1_1840_252 0 0.004f
r160 net8_M1_1840_252 net8_M1_1840_332 8.0
c320 net8_M1_1840_252 0 0.008f
c321 net8_M1_1840_332 0 0.008f
r161 net8_M1_1840_332 net8_M1_1840_336 0.4
c322 net8_M1_1840_332 0 0.0004f
c323 net8_M1_1840_336 0 0.0004f
r162 net8_M1_1840_336 net8_M1_1840_416 8.0
c324 net8_M1_1840_336 0 0.008f
c325 net8_M1_1840_416 0 0.008f
r163 net8_M1_1840_416 net8_M1_1840_462 4.6
c326 net8_M1_1840_416 0 0.0046f
c327 net8_M1_1840_462 0 0.0046f
r164 net8_M1_1840_462 net8_M1_1840_542 8.0
c328 net8_M1_1840_462 0 0.008f
c329 net8_M1_1840_542 0 0.008f
r165 net8_M1_1840_542 net8_M1_1840_588 4.6
c330 net8_M1_1840_542 0 0.0046f
c331 net8_M1_1840_588 0 0.0046f
r166 net8_M1_1840_588 net8_M1_1840_668 8.0
c332 net8_M1_1840_588 0 0.008f
c333 net8_M1_1840_668 0 0.008f
r167 net8_M1_1840_668 net8_M1_1840_748 8.0
c334 net8_M1_1840_668 0 0.008f
c335 net8_M1_1840_748 0 0.008f
r168 net8_M1_1840_748 net8_M1_1840_792 4.3999999999999995
c336 net8_M1_1840_748 0 0.0044f
c337 net8_M1_1840_792 0 0.0044f
r169 vinn_M1_2400_132 vinn_M1_2400_168 3.5999999999999996
c338 vinn_M1_2400_132 0 0.0036f
c339 vinn_M1_2400_168 0 0.0036f
r170 vinn_M1_2400_168 vinn_M1_2400_248 8.0
c340 vinn_M1_2400_168 0 0.008f
c341 vinn_M1_2400_248 0 0.008f
r171 vinn_M1_2400_248 vinn_M1_2400_328 8.0
c342 vinn_M1_2400_248 0 0.008f
c343 vinn_M1_2400_328 0 0.008f
r172 vinn_M1_2400_328 vinn_M1_2400_408 8.0
c344 vinn_M1_2400_328 0 0.008f
c345 vinn_M1_2400_408 0 0.008f
r173 vinn_M1_2400_408 vinn_M1_2400_488 8.0
c346 vinn_M1_2400_408 0 0.008f
c347 vinn_M1_2400_488 0 0.008f
r174 vinn_M1_2400_488 vinn_M1_2400_504 1.6
c348 vinn_M1_2400_488 0 0.0016f
c349 vinn_M1_2400_504 0 0.0016f
r175 vinn_M1_2400_504 vinn_M1_2400_584 8.0
c350 vinn_M1_2400_504 0 0.008f
c351 vinn_M1_2400_584 0 0.008f
r176 vinn_M1_2400_584 vinn_M1_2400_664 8.0
c352 vinn_M1_2400_584 0 0.008f
c353 vinn_M1_2400_664 0 0.008f
r177 vinn_M1_2400_664 vinn_M1_2400_744 8.0
c354 vinn_M1_2400_664 0 0.008f
c355 vinn_M1_2400_744 0 0.008f
r178 vinn_M1_2400_744 vinn_M1_2400_792 4.8
c356 vinn_M1_2400_744 0 0.0048000000000000004f
c357 vinn_M1_2400_792 0 0.0048000000000000004f
r179 net10_M1_2320_132 net10_M1_2320_168 3.5999999999999996
c358 net10_M1_2320_132 0 0.0036f
c359 net10_M1_2320_168 0 0.0036f
r180 net10_M1_2320_168 net10_M1_2320_248 8.0
c360 net10_M1_2320_168 0 0.008f
c361 net10_M1_2320_248 0 0.008f
r181 net10_M1_2320_248 net10_M1_2320_328 8.0
c362 net10_M1_2320_248 0 0.008f
c363 net10_M1_2320_328 0 0.008f
r182 net10_M1_2320_328 net10_M1_2320_336 0.8
c364 net10_M1_2320_328 0 0.0008f
c365 net10_M1_2320_336 0 0.0008f
r183 net10_M1_2320_336 net10_M1_2320_416 8.0
c366 net10_M1_2320_336 0 0.008f
c367 net10_M1_2320_416 0 0.008f
r184 net10_M1_2320_416 net10_M1_2320_462 4.6
c368 net10_M1_2320_416 0 0.0046f
c369 net10_M1_2320_462 0 0.0046f
r185 net10_M1_2320_462 net10_M1_2320_542 8.0
c370 net10_M1_2320_462 0 0.008f