
*
* Short channel models from CMOS Circuit Design, Layout, and Simulation,
* 50nm BSIM4 models VDD=1V, see CMOSedu.com
*
.model  N_50n  nmos  level = 54
+binunit = 1            paramchk= 1            mobmod  = 0          
+capmod  = 2            igcmod  = 1            igbmod  = 1            geomod  = 0          
+diomod  = 1            rdsmod  = 0            rbodymod= 1            rgatemod= 1          
+permod  = 1            acnqsmod= 0            trnqsmod= 0          
+tnom    = 27           toxe    = 1.4e-009     toxp    = 7e-010       toxm    = 1.4e-009   
+epsrox  = 3.9          wint    = 5e-009       lint    = 1.2e-008   
+ll      = 0            wl      = 0            lln     = 1            wln     = 1          
+lw      = 0            ww      = 0            lwn     = 1            wwn     = 1          
+lwl     = 0            wwl     = 0            xpart   = 0            toxref  = 1.4e-009   
+vth0    = 0.22         k1      = 0.35         k2      = 0.05         k3      = 0          
+k3b     = 0            w0      = 2.5e-006     dvt0    = 2.8          dvt1    = 0.52       
+dvt2    = -0.032       dvt0w   = 0            dvt1w   = 0            dvt2w   = 0          
+dsub    = 2            minv    = 0.05         voffl   = 0            dvtp0   = 1e-007     
+dvtp1   = 0.05         lpe0    = 5.75e-008    lpeb    = 2.3e-010     xj      = 2e-008     
+ngate   = 5e+020       ndep    = 2.8e+018     nsd     = 1e+020       phin    = 0          
+cdsc    = 0.0002       cdscb   = 0            cdscd   = 0            cit     = 0          
+voff    = -0.15        nfactor = 1.2          eta0    = 0.15         etab    = 0          
+vfb     = -0.55        u0      = 0.032        ua      = 1.6e-010     ub      = 1.1e-017   
+uc      = -3e-011      vsat    = 1.1e+005     a0      = 2            ags     = 1e-020     
+a1      = 0            a2      = 1            b0      = -1e-020      b1      = 0          
+keta    = 0.04         dwg     = 0            dwb     = 0            pclm    = 0.18       
+pdiblc1 = 0.028        pdiblc2 = 0.022        pdiblcb = -0.005       drout   = 0.45       
+pvag    = 1e-020       delta   = 0.01         pscbe1  = 8.14e+008    pscbe2  = 1e-007     
+fprout  = 0.2          pdits   = 0.2          pditsd  = 0.23         pditsl  = 2.3e+006   
+rsh     = 3            rdsw    = 150          rsw     = 150          rdw     = 150        
+rdswmin = 0            rdwmin  = 0            rswmin  = 0            prwg    = 0          
+prwb    = 6.8e-011     wr      = 1            alpha0  = 0.074        alpha1  = 0.005      
+beta0   = 30           agidl   = 0.0002       bgidl   = 2.1e+009     cgidl   = 0.0002     
+egidl   = 0.8          
+aigbacc = 0.012        bigbacc = 0.0028       cigbacc = 0.002
+nigbacc = 1            aigbinv = 0.014        bigbinv = 0.004        cigbinv = 0.004
+eigbinv = 1.1          nigbinv = 3            aigc    = 0.017        bigc    = 0.0028
+cigc    = 0.002        aigsd   = 0.017        bigsd   = 0.0028       cigsd   = 0.002
+nigc    = 1            poxedge = 1            pigcd   = 1            ntox    = 1
+xrcrg1  = 12           xrcrg2  = 5          
+cgso    = 6.238e-010   cgdo    = 6.238e-010   cgbo    = 2.56e-011    cgdl    = 2.495e-10     
+cgsl    = 2.495e-10    ckappas = 0.02         ckappad = 0.02         acde    = 1          
+moin    = 15           noff    = 0.9          voffcv  = 0.02       
+kt1     = -0.21        kt1l    = 0.0           kt2     = -0.042        ute     = -1.5
+ua1     = 1e-009       ub1     = -3.5e-019     uc1     = 0             prt     = 0
+at      = 53000
+fnoimod = 1            tnoimod = 0          
+jss     = 0.0001       jsws    = 1e-011       jswgs   = 1e-010       njs     = 1          
+ijthsfwd= 0.01         ijthsrev= 0.001        bvs     = 10           xjbvs   = 1          
+jsd     = 0.0001       jswd    = 1e-011       jswgd   = 1e-010       njd     = 1          
+ijthdfwd= 0.01         ijthdrev= 0.001        bvd     = 10           xjbvd   = 1          
+pbs     = 1            cjs     = 0.0005       mjs     = 0.5          pbsws   = 1          
+cjsws   = 5e-010       mjsws   = 0.33         pbswgs  = 1            cjswgs  = 5e-010     
+mjswgs  = 0.33         pbd     = 1            cjd     = 0.0005       mjd     = 0.5        
+pbswd   = 1            cjswd   = 5e-010       mjswd   = 0.33         pbswgd  = 1          
+cjswgd  = 5e-010       mjswgd  = 0.33         tpb     = 0.005        tcj     = 0.001      
+tpbsw   = 0.005        tcjsw   = 0.001        tpbswg  = 0.005        tcjswg  = 0.001      
+xtis    = 3            xtid    = 3          
+dmcg    = 0e-006       dmci    = 0e-006       dmdg    = 0e-006       dmcgt   = 0e-007     
+dwj     = 0e-008     	xgw     = 0e-007       xgl     = 0e-008     
+rshg    = 0.4          gbmin   = 1e-010       rbpb    = 5            rbpd    = 15         
+rbps    = 15           rbdb    = 15           rbsb    = 15           ngcon   = 1
*
.model  P_50n  pmos  level = 54
+binunit = 1            paramchk= 1            mobmod  = 0          
+capmod  = 2            igcmod  = 1            igbmod  = 1            geomod  = 0          
+diomod  = 1            rdsmod  = 0            rbodymod= 1            rgatemod= 1          
+permod  = 1            acnqsmod= 0            trnqsmod= 0          
+tnom    = 27           toxe    = 1.4e-009     toxp    = 7e-010       toxm    = 1.4e-009   
+epsrox  = 3.9          wint    = 5e-009       lint    = 1.2e-008   
+ll      = 0            wl      = 0            lln     = 1            wln     = 1          
+lw      = 0            ww      = 0            lwn     = 1            wwn     = 1          
+lwl     = 0            wwl     = 0            xpart   = 0            toxref  = 1.4e-009   
+vth0    = -0.22        k1      = 0.39         k2      = 0.05         k3      = 0          
+k3b     = 0            w0      = 2.5e-006     dvt0    = 3.9          dvt1    = 0.635        
+dvt2    = -0.032       dvt0w   = 0            dvt1w   = 0            dvt2w   = 0          
+dsub    = 0.7          minv    = 0.05         voffl   = 0            dvtp0   = 0.5e-008     
+dvtp1   = 0.05         lpe0    = 5.75e-008    lpeb    = 2.3e-010     xj      = 2e-008     
+ngate   = 5e+020       ndep    = 2.8e+018     nsd     = 1e+020       phin    = 0          
+cdsc    = 0.000258     cdscb   = 0            cdscd   = 6.1e-008     cit     = 0          
+voff    = -0.15        nfactor = 2            eta0    = 0.15         etab    = 0          
+vfb     = 0.55         u0      = 0.0095       ua      = 1.6e-009     ub      = 8e-018     
+uc      = 4.6e-013     vsat    = 90000        a0      = 1.2          ags     = 1e-020     
+a1      = 0            a2      = 1            b0      = -1e-020      b1      = 0          
+keta    = -0.047       dwg     = 0            dwb     = 0            pclm    = 0.55       
+pdiblc1 = 0.03         pdiblc2 = 0.0055       pdiblcb = 3.4e-008     drout   = 0.56       
+pvag    = 1e-020       delta   = 0.014        pscbe1  = 8.14e+008    pscbe2  = 9.58e-007  
+fprout  = 0.2          pdits   = 0.2          pditsd  = 0.23         pditsl  = 2.3e+006   
+rsh     = 3            rdsw    = 250          rsw     = 160          rdw     = 160        
+rdswmin = 0            rdwmin  = 0            rswmin  = 0            prwg    = 3.22e-008  
+prwb    = 6.8e-011     wr      = 1            alpha0  = 0.074        alpha1  = 0.005      
+beta0   = 30           agidl   = 0.0002       bgidl   = 2.1e+009     cgidl   = 0.0002     
+egidl   = 0.8          
+aigbacc = 0.012        bigbacc = 0.0028       cigbacc = 0.002
+nigbacc = 1            aigbinv = 0.014        bigbinv = 0.004        cigbinv = 0.004
+eigbinv = 1.1          nigbinv = 3            aigc    = 0.69         bigc    = 0.0012
+cigc    = 0.0008       aigsd   = 0.0087       bigsd   = 0.0012       cigsd   = 0.0008
+nigc    = 1            poxedge = 1            pigcd   = 1            ntox    = 1
+xrcrg1  = 12           xrcrg2  = 5          
+cgso    = 7.43e-010    cgdo    = 7.43e-010    cgbo    = 2.56e-011    cgdl    = 1e-014     
+cgsl    = 1e-014       ckappas = 0.5          ckappad = 0.5          acde    = 1          
+moin    = 15           noff    = 0.9          voffcv  = 0.02       
+kt1     = -0.19        kt1l    = 0            kt2     = -0.052        ute     = -1.5
+ua1     = -1e-009      ub1     = 2e-018       uc1     = 0             prt     = 0
+at      = 33000
+fnoimod = 1            tnoimod = 0          
+jss     = 0.0001       jsws    = 1e-011       jswgs   = 1e-010       njs     = 1          
+ijthsfwd= 0.01         ijthsrev= 0.001        bvs     = 10           xjbvs   = 1          
+jsd     = 0.0001       jswd    = 1e-011       jswgd   = 1e-010       njd     = 1          
+ijthdfwd= 0.01         ijthdrev= 0.001        bvd     = 10           xjbvd   = 1          
+pbs     = 1            cjs     = 0.0005       mjs     = 0.5          pbsws   = 1          
+cjsws   = 5e-010       mjsws   = 0.33         pbswgs  = 1            cjswgs  = 5e-010     
+mjswgs  = 0.33         pbd     = 1            cjd     = 0.0005       mjd     = 0.5        
+pbswd   = 1            cjswd   = 5e-010       mjswd   = 0.33         pbswgd  = 1          
+cjswgd  = 5e-010       mjswgd  = 0.33         tpb     = 0.005        tcj     = 0.001      
+tpbsw   = 0.005        tcjsw   = 0.001        tpbswg  = 0.005        tcjswg  = 0.001      
+xtis    = 3            xtid    = 3          
+dmcg    = 0e-006       dmci    = 0e-006       dmdg    = 0e-006       dmcgt   = 0e-007     
+dwj     = 0e-008     	xgw     = 0e-007       xgl     = 0e-008     
+rshg    = 0.4          gbmin   = 1e-010       rbpb    = 5            rbpd    = 15         
+rbps    = 15           rbdb    = 15           rbsb    = 15           ngcon   = 1   


.MODEL NMOS NMOS
.MODEL PMOS PMOS

.GLOBAL vdd!

*.TEMP 25.0

*.OPTION INGOLD=2 ARTIST=2 PSF=2 MEASOUT=1 PARHIER=LOCAL PROBE=0 MARCH=2 ACCURACY=1 POST

.SUBCKT NMOS d g s b PARAMS: w=270e-9 l=20e-9 nfin=10
.param width={nfin*100n}
.param length={50n}
.param perimeter={3*length}
.param area={1.5*length*width}

mn d g s b N_50n L={length} W={width} PD={perimeter} AD={area}
.ENDS

.SUBCKT PMOS d g s b PARAMS: w=270e-9 l=20e-9 nfin=10
.param width={nfin*100n}
.param length={2*50n}
.param perimeter={3*length}
.param area={1.5*length*width}

mp d g s b P_50n L={length} W={width} PD={perimeter} AD={area}
.ENDS

r0 net8_M1_3840_132 net8_M1_3840_212 8.0
c0 net8_M1_3840_132 0 0.008f
c1 net8_M1_3840_212 0 0.008f
r1 net8_M1_3840_212 net8_M1_3840_252 4.0
c2 net8_M1_3840_212 0 0.004f
c3 net8_M1_3840_252 0 0.004f
r2 net8_M1_3840_252 net8_M1_3840_332 8.0
c4 net8_M1_3840_252 0 0.008f
c5 net8_M1_3840_332 0 0.008f
r3 net8_M1_3840_332 net8_M1_3840_412 8.0
c6 net8_M1_3840_332 0 0.008f
c7 net8_M1_3840_412 0 0.008f
r4 net8_M1_3840_412 net8_M1_3840_420 0.8
c8 net8_M1_3840_412 0 0.0008f
c9 net8_M1_3840_420 0 0.0008f
r5 net8_M1_3840_168 net8_M1_3840_248 8.0
c10 net8_M1_3840_168 0 0.008f
c11 net8_M1_3840_248 0 0.008f
r6 net8_M1_3840_248 net8_M1_3840_328 8.0
c12 net8_M1_3840_248 0 0.008f
c13 net8_M1_3840_328 0 0.008f
r7 net8_M1_3840_328 net8_M1_3840_408 8.0
c14 net8_M1_3840_328 0 0.008f
c15 net8_M1_3840_408 0 0.008f
r8 net8_M1_3840_408 net8_M1_3840_488 8.0
c16 net8_M1_3840_408 0 0.008f
c17 net8_M1_3840_488 0 0.008f
r9 net8_M1_3840_488 net8_M1_3840_568 8.0
c18 net8_M1_3840_488 0 0.008f
c19 net8_M1_3840_568 0 0.008f
r10 net8_M1_3840_568 net8_M1_3840_648 8.0
c20 net8_M1_3840_568 0 0.008f
c21 net8_M1_3840_648 0 0.008f
r11 net8_M1_3840_648 net8_M1_3840_728 8.0
c22 net8_M1_3840_648 0 0.008f
c23 net8_M1_3840_728 0 0.008f
r12 net8_M1_3840_728 net8_M1_3840_792 6.4
c24 net8_M1_3840_728 0 0.0064f
c25 net8_M1_3840_792 0 0.0064f
r13 vdd_M1_3920_132 vdd_M1_3920_168 3.5999999999999996
c26 vdd_M1_3920_132 0 0.0036f
c27 vdd_M1_3920_168 0 0.0036f
r14 vdd_M1_3920_168 vdd_M1_3920_248 8.0
c28 vdd_M1_3920_168 0 0.008f
c29 vdd_M1_3920_248 0 0.008f
r15 vdd_M1_3920_248 vdd_M1_3920_328 8.0
c30 vdd_M1_3920_248 0 0.008f
c31 vdd_M1_3920_328 0 0.008f
r16 vdd_M1_3920_328 vdd_M1_3920_336 0.8
c32 vdd_M1_3920_328 0 0.0008f
c33 vdd_M1_3920_336 0 0.0008f
r17 vdd_M1_3920_336 vdd_M1_3920_416 8.0
c34 vdd_M1_3920_336 0 0.008f
c35 vdd_M1_3920_416 0 0.008f
r18 vdd_M1_3920_416 vdd_M1_3920_462 4.6
c36 vdd_M1_3920_416 0 0.0046f
c37 vdd_M1_3920_462 0 0.0046f
r19 vdd_M1_3920_462 vdd_M1_3920_542 8.0
c38 vdd_M1_3920_462 0 0.008f
c39 vdd_M1_3920_542 0 0.008f
r20 vdd_M1_3920_542 vdd_M1_3920_588 4.6
c40 vdd_M1_3920_542 0 0.0046f
c41 vdd_M1_3920_588 0 0.0046f
r21 vdd_M1_3920_588 vdd_M1_3920_668 8.0
c42 vdd_M1_3920_588 0 0.008f
c43 vdd_M1_3920_668 0 0.008f
r22 vdd_M1_3920_668 vdd_M1_3920_748 8.0
c44 vdd_M1_3920_668 0 0.008f
c45 vdd_M1_3920_748 0 0.008f
r23 vdd_M1_3920_748 vdd_M1_3920_792 4.3999999999999995
c46 vdd_M1_3920_748 0 0.0044f
c47 vdd_M1_3920_792 0 0.0044f
r24 net8_M1_3760_132 net8_M1_3760_212 8.0
c48 net8_M1_3760_132 0 0.008f
c49 net8_M1_3760_212 0 0.008f
r25 net8_M1_3760_212 net8_M1_3760_252 4.0
c50 net8_M1_3760_212 0 0.004f
c51 net8_M1_3760_252 0 0.004f
r26 net8_M1_3760_252 net8_M1_3760_332 8.0
c52 net8_M1_3760_252 0 0.008f
c53 net8_M1_3760_332 0 0.008f
r27 net8_M1_3760_332 net8_M1_3760_412 8.0
c54 net8_M1_3760_332 0 0.008f
c55 net8_M1_3760_412 0 0.008f
r28 net8_M1_3760_412 net8_M1_3760_420 0.8
c56 net8_M1_3760_412 0 0.0008f
c57 net8_M1_3760_420 0 0.0008f
r29 net8_M1_3760_336 net8_M1_3760_416 8.0
c58 net8_M1_3760_336 0 0.008f
c59 net8_M1_3760_416 0 0.008f
r30 net8_M1_3760_416 net8_M1_3760_462 4.6
c60 net8_M1_3760_416 0 0.0046f
c61 net8_M1_3760_462 0 0.0046f
r31 net8_M1_3760_462 net8_M1_3760_542 8.0
c62 net8_M1_3760_462 0 0.008f
c63 net8_M1_3760_542 0 0.008f
r32 net8_M1_3760_542 net8_M1_3760_588 4.6
c64 net8_M1_3760_542 0 0.0046f
c65 net8_M1_3760_588 0 0.0046f
r33 net8_M1_3760_588 net8_M1_3760_668 8.0
c66 net8_M1_3760_588 0 0.008f
c67 net8_M1_3760_668 0 0.008f
r34 net8_M1_3760_668 net8_M1_3760_748 8.0
c68 net8_M1_3760_668 0 0.008f
c69 net8_M1_3760_748 0 0.008f
r35 net8_M1_3760_748 net8_M1_3760_792 4.3999999999999995
c70 net8_M1_3760_748 0 0.0044f
c71 net8_M1_3760_792 0 0.0044f
r36 net8_M1_3120_132 net8_M1_3120_212 8.0
c72 net8_M1_3120_132 0 0.008f
c73 net8_M1_3120_212 0 0.008f
r37 net8_M1_3120_212 net8_M1_3120_292 8.0
c74 net8_M1_3120_212 0 0.008f
c75 net8_M1_3120_292 0 0.008f
r38 net8_M1_3120_292 net8_M1_3120_336 4.3999999999999995
c76 net8_M1_3120_292 0 0.0044f
c77 net8_M1_3120_336 0 0.0044f
r39 net8_M1_3120_336 net8_M1_3120_416 8.0
c78 net8_M1_3120_336 0 0.008f
c79 net8_M1_3120_416 0 0.008f
r40 net8_M1_3120_416 net8_M1_3120_496 8.0
c80 net8_M1_3120_416 0 0.008f
c81 net8_M1_3120_496 0 0.008f
r41 net8_M1_3120_496 net8_M1_3120_576 8.0
c82 net8_M1_3120_496 0 0.008f
c83 net8_M1_3120_576 0 0.008f
r42 net8_M1_3120_576 net8_M1_3120_588 1.2
c84 net8_M1_3120_576 0 0.0012000000000000001f
c85 net8_M1_3120_588 0 0.0012000000000000001f
r43 net8_M1_3120_168 net8_M1_3120_248 8.0
c86 net8_M1_3120_168 0 0.008f
c87 net8_M1_3120_248 0 0.008f
r44 net8_M1_3120_248 net8_M1_3120_328 8.0
c88 net8_M1_3120_248 0 0.008f
c89 net8_M1_3120_328 0 0.008f
r45 net8_M1_3120_328 net8_M1_3120_408 8.0
c90 net8_M1_3120_328 0 0.008f
c91 net8_M1_3120_408 0 0.008f
r46 net8_M1_3120_408 net8_M1_3120_488 8.0
c92 net8_M1_3120_408 0 0.008f
c93 net8_M1_3120_488 0 0.008f
r47 net8_M1_3120_488 net8_M1_3120_568 8.0
c94 net8_M1_3120_488 0 0.008f
c95 net8_M1_3120_568 0 0.008f
r48 net8_M1_3120_568 net8_M1_3120_648 8.0
c96 net8_M1_3120_568 0 0.008f
c97 net8_M1_3120_648 0 0.008f
r49 net8_M1_3120_648 net8_M1_3120_728 8.0
c98 net8_M1_3120_648 0 0.008f
c99 net8_M1_3120_728 0 0.008f
r50 net8_M1_3120_728 net8_M1_3120_792 6.4
c100 net8_M1_3120_728 0 0.0064f
c101 net8_M1_3120_792 0 0.0064f
r51 vdd_M1_3200_132 vdd_M1_3200_168 3.5999999999999996
c102 vdd_M1_3200_132 0 0.0036f
c103 vdd_M1_3200_168 0 0.0036f
r52 vdd_M1_3200_168 vdd_M1_3200_248 8.0
c104 vdd_M1_3200_168 0 0.008f
c105 vdd_M1_3200_248 0 0.008f
r53 vdd_M1_3200_248 vdd_M1_3200_328 8.0
c106 vdd_M1_3200_248 0 0.008f
c107 vdd_M1_3200_328 0 0.008f
r54 vdd_M1_3200_328 vdd_M1_3200_408 8.0
c108 vdd_M1_3200_328 0 0.008f
c109 vdd_M1_3200_408 0 0.008f
r55 vdd_M1_3200_408 vdd_M1_3200_420 1.2
c110 vdd_M1_3200_408 0 0.0012000000000000001f
c111 vdd_M1_3200_420 0 0.0012000000000000001f
r56 vdd_M1_3200_336 vdd_M1_3200_416 8.0
c112 vdd_M1_3200_336 0 0.008f
c113 vdd_M1_3200_416 0 0.008f
r57 vdd_M1_3200_416 vdd_M1_3200_462 4.6
c114 vdd_M1_3200_416 0 0.0046f
c115 vdd_M1_3200_462 0 0.0046f
r58 vdd_M1_3200_462 vdd_M1_3200_542 8.0
c116 vdd_M1_3200_462 0 0.008f
c117 vdd_M1_3200_542 0 0.008f
r59 vdd_M1_3200_542 vdd_M1_3200_588 4.6
c118 vdd_M1_3200_542 0 0.0046f
c119 vdd_M1_3200_588 0 0.0046f
r60 vdd_M1_3200_588 vdd_M1_3200_668 8.0
c120 vdd_M1_3200_588 0 0.008f
c121 vdd_M1_3200_668 0 0.008f
r61 vdd_M1_3200_668 vdd_M1_3200_748 8.0
c122 vdd_M1_3200_668 0 0.008f
c123 vdd_M1_3200_748 0 0.008f
r62 vdd_M1_3200_748 vdd_M1_3200_792 4.3999999999999995
c124 vdd_M1_3200_748 0 0.0044f
c125 vdd_M1_3200_792 0 0.0044f
r63 vout_M1_3040_132 vout_M1_3040_212 8.0
c126 vout_M1_3040_132 0 0.008f
c127 vout_M1_3040_212 0 0.008f
r64 vout_M1_3040_212 vout_M1_3040_252 4.0
c128 vout_M1_3040_212 0 0.004f
c129 vout_M1_3040_252 0 0.004f
r65 vout_M1_3040_252 vout_M1_3040_332 8.0
c130 vout_M1_3040_252 0 0.008f
c131 vout_M1_3040_332 0 0.008f
r66 vout_M1_3040_332 vout_M1_3040_412 8.0
c132 vout_M1_3040_332 0 0.008f
c133 vout_M1_3040_412 0 0.008f
r67 vout_M1_3040_412 vout_M1_3040_492 8.0
c134 vout_M1_3040_412 0 0.008f
c135 vout_M1_3040_492 0 0.008f
r68 vout_M1_3040_492 vout_M1_3040_504 1.2
c136 vout_M1_3040_492 0 0.0012000000000000001f
c137 vout_M1_3040_504 0 0.0012000000000000001f
r69 vout_M1_3040_336 vout_M1_3040_416 8.0
c138 vout_M1_3040_336 0 0.008f
c139 vout_M1_3040_416 0 0.008f
r70 vout_M1_3040_416 vout_M1_3040_462 4.6
c140 vout_M1_3040_416 0 0.0046f
c141 vout_M1_3040_462 0 0.0046f
r71 vout_M1_3040_462 vout_M1_3040_542 8.0
c142 vout_M1_3040_462 0 0.008f
c143 vout_M1_3040_542 0 0.008f
r72 vout_M1_3040_542 vout_M1_3040_588 4.6
c144 vout_M1_3040_542 0 0.0046f
c145 vout_M1_3040_588 0 0.0046f
r73 vout_M1_3040_588 vout_M1_3040_668 8.0
c146 vout_M1_3040_588 0 0.008f
c147 vout_M1_3040_668 0 0.008f
r74 vout_M1_3040_668 vout_M1_3040_748 8.0
c148 vout_M1_3040_668 0 0.008f
c149 vout_M1_3040_748 0 0.008f
r75 vout_M1_3040_748 vout_M1_3040_792 4.3999999999999995
c150 vout_M1_3040_748 0 0.0044f
c151 vout_M1_3040_792 0 0.0044f
r76 id_M1_400_132 id_M1_400_212 8.0
c152 id_M1_400_132 0 0.008f
c153 id_M1_400_212 0 0.008f
r77 id_M1_400_212 id_M1_400_252 4.0
c154 id_M1_400_212 0 0.004f
c155 id_M1_400_252 0 0.004f
r78 id_M1_400_252 id_M1_400_332 8.0
c156 id_M1_400_252 0 0.008f
c157 id_M1_400_332 0 0.008f
r79 id_M1_400_332 id_M1_400_412 8.0
c158 id_M1_400_332 0 0.008f
c159 id_M1_400_412 0 0.008f
r80 id_M1_400_412 id_M1_400_492 8.0
c160 id_M1_400_412 0 0.008f
c161 id_M1_400_492 0 0.008f
r81 id_M1_400_492 id_M1_400_504 1.2
c162 id_M1_400_492 0 0.0012000000000000001f
c163 id_M1_400_504 0 0.0012000000000000001f
r82 id_M1_400_168 id_M1_400_248 8.0
c164 id_M1_400_168 0 0.008f
c165 id_M1_400_248 0 0.008f
r83 id_M1_400_248 id_M1_400_328 8.0
c166 id_M1_400_248 0 0.008f
c167 id_M1_400_328 0 0.008f
r84 id_M1_400_328 id_M1_400_408 8.0
c168 id_M1_400_328 0 0.008f
c169 id_M1_400_408 0 0.008f
r85 id_M1_400_408 id_M1_400_488 8.0
c170 id_M1_400_408 0 0.008f
c171 id_M1_400_488 0 0.008f
r86 id_M1_400_488 id_M1_400_568 8.0
c172 id_M1_400_488 0 0.008f
c173 id_M1_400_568 0 0.008f
r87 id_M1_400_568 id_M1_400_648 8.0
c174 id_M1_400_568 0 0.008f
c175 id_M1_400_648 0 0.008f
r88 id_M1_400_648 id_M1_400_728 8.0
c176 id_M1_400_648 0 0.008f
c177 id_M1_400_728 0 0.008f
r89 id_M1_400_728 id_M1_400_792 6.4
c178 id_M1_400_728 0 0.0064f
c179 id_M1_400_792 0 0.0064f
r90 vss_M1_320_132 vss_M1_320_168 3.5999999999999996
c180 vss_M1_320_132 0 0.0036f
c181 vss_M1_320_168 0 0.0036f
r91 vss_M1_320_168 vss_M1_320_248 8.0
c182 vss_M1_320_168 0 0.008f
c183 vss_M1_320_248 0 0.008f
r92 vss_M1_320_248 vss_M1_320_328 8.0
c184 vss_M1_320_248 0 0.008f
c185 vss_M1_320_328 0 0.008f
r93 vss_M1_320_328 vss_M1_320_408 8.0
c186 vss_M1_320_328 0 0.008f
c187 vss_M1_320_408 0 0.008f
r94 vss_M1_320_408 vss_M1_320_420 1.2
c188 vss_M1_320_408 0 0.0012000000000000001f
c189 vss_M1_320_420 0 0.0012000000000000001f
r95 vss_M1_320_336 vss_M1_320_416 8.0
c190 vss_M1_320_336 0 0.008f
c191 vss_M1_320_416 0 0.008f
r96 vss_M1_320_416 vss_M1_320_462 4.6
c192 vss_M1_320_416 0 0.0046f
c193 vss_M1_320_462 0 0.0046f
r97 vss_M1_320_462 vss_M1_320_542 8.0
c194 vss_M1_320_462 0 0.008f
c195 vss_M1_320_542 0 0.008f
r98 vss_M1_320_542 vss_M1_320_588 4.6
c196 vss_M1_320_542 0 0.0046f
c197 vss_M1_320_588 0 0.0046f
r99 vss_M1_320_588 vss_M1_320_668 8.0
c198 vss_M1_320_588 0 0.008f
c199 vss_M1_320_668 0 0.008f
r100 vss_M1_320_668 vss_M1_320_748 8.0
c200 vss_M1_320_668 0 0.008f
c201 vss_M1_320_748 0 0.008f
r101 vss_M1_320_748 vss_M1_320_792 4.3999999999999995
c202 vss_M1_320_748 0 0.0044f
c203 vss_M1_320_792 0 0.0044f
r102 id_M1_480_132 id_M1_480_212 8.0
c204 id_M1_480_132 0 0.008f
c205 id_M1_480_212 0 0.008f
r103 id_M1_480_212 id_M1_480_252 4.0
c206 id_M1_480_212 0 0.004f
c207 id_M1_480_252 0 0.004f
r104 id_M1_480_252 id_M1_480_332 8.0
c208 id_M1_480_252 0 0.008f
c209 id_M1_480_332 0 0.008f
r105 id_M1_480_332 id_M1_480_412 8.0
c210 id_M1_480_332 0 0.008f
c211 id_M1_480_412 0 0.008f
r106 id_M1_480_412 id_M1_480_492 8.0
c212 id_M1_480_412 0 0.008f
c213 id_M1_480_492 0 0.008f
r107 id_M1_480_492 id_M1_480_504 1.2
c214 id_M1_480_492 0 0.0012000000000000001f
c215 id_M1_480_504 0 0.0012000000000000001f
r108 id_M1_480_336 id_M1_480_416 8.0
c216 id_M1_480_336 0 0.008f
c217 id_M1_480_416 0 0.008f
r109 id_M1_480_416 id_M1_480_462 4.6
c218 id_M1_480_416 0 0.0046f
c219 id_M1_480_462 0 0.0046f
r110 id_M1_480_462 id_M1_480_542 8.0
c220 id_M1_480_462 0 0.008f
c221 id_M1_480_542 0 0.008f
r111 id_M1_480_542 id_M1_480_588 4.6
c222 id_M1_480_542 0 0.0046f
c223 id_M1_480_588 0 0.0046f
r112 id_M1_480_588 id_M1_480_668 8.0
c224 id_M1_480_588 0 0.008f
c225 id_M1_480_668 0 0.008f
r113 id_M1_480_668 id_M1_480_748 8.0
c226 id_M1_480_668 0 0.008f
c227 id_M1_480_748 0 0.008f
r114 id_M1_480_748 id_M1_480_792 4.3999999999999995
c228 id_M1_480_748 0 0.0044f
c229 id_M1_480_792 0 0.0044f
r115 id_M1_1040_132 id_M1_1040_212 8.0
c230 id_M1_1040_132 0 0.008f
c231 id_M1_1040_212 0 0.008f
r116 id_M1_1040_212 id_M1_1040_252 4.0
c232 id_M1_1040_212 0 0.004f
c233 id_M1_1040_252 0 0.004f
r117 id_M1_1040_252 id_M1_1040_332 8.0
c234 id_M1_1040_252 0 0.008f
c235 id_M1_1040_332 0 0.008f
r118 id_M1_1040_332 id_M1_1040_412 8.0
c236 id_M1_1040_332 0 0.008f
c237 id_M1_1040_412 0 0.008f
r119 id_M1_1040_412 id_M1_1040_492 8.0
c238 id_M1_1040_412 0 0.008f
c239 id_M1_1040_492 0 0.008f
r120 id_M1_1040_492 id_M1_1040_504 1.2
c240 id_M1_1040_492 0 0.0012000000000000001f
c241 id_M1_1040_504 0 0.0012000000000000001f
r121 id_M1_1040_168 id_M1_1040_248 8.0
c242 id_M1_1040_168 0 0.008f
c243 id_M1_1040_248 0 0.008f
r122 id_M1_1040_248 id_M1_1040_328 8.0
c244 id_M1_1040_248 0 0.008f
c245 id_M1_1040_328 0 0.008f
r123 id_M1_1040_328 id_M1_1040_408 8.0
c246 id_M1_1040_328 0 0.008f
c247 id_M1_1040_408 0 0.008f
r124 id_M1_1040_408 id_M1_1040_488 8.0
c248 id_M1_1040_408 0 0.008f
c249 id_M1_1040_488 0 0.008f
r125 id_M1_1040_488 id_M1_1040_568 8.0
c250 id_M1_1040_488 0 0.008f
c251 id_M1_1040_568 0 0.008f
r126 id_M1_1040_568 id_M1_1040_648 8.0
c252 id_M1_1040_568 0 0.008f
c253 id_M1_1040_648 0 0.008f
r127 id_M1_1040_648 id_M1_1040_728 8.0
c254 id_M1_1040_648 0 0.008f
c255 id_M1_1040_728 0 0.008f
r128 id_M1_1040_728 id_M1_1040_792 6.4
c256 id_M1_1040_728 0 0.0064f
c257 id_M1_1040_792 0 0.0064f
r129 vss_M1_960_132 vss_M1_960_168 3.5999999999999996
c258 vss_M1_960_132 0 0.0036f
c259 vss_M1_960_168 0 0.0036f
r130 vss_M1_960_168 vss_M1_960_248 8.0
c260 vss_M1_960_168 0 0.008f
c261 vss_M1_960_248 0 0.008f
r131 vss_M1_960_248 vss_M1_960_328 8.0
c262 vss_M1_960_248 0 0.008f
c263 vss_M1_960_328 0 0.008f
r132 vss_M1_960_328 vss_M1_960_408 8.0
c264 vss_M1_960_328 0 0.008f
c265 vss_M1_960_408 0 0.008f
r133 vss_M1_960_408 vss_M1_960_420 1.2
c266 vss_M1_960_408 0 0.0012000000000000001f
c267 vss_M1_960_420 0 0.0012000000000000001f
r134 vss_M1_960_336 vss_M1_960_416 8.0
c268 vss_M1_960_336 0 0.008f
c269 vss_M1_960_416 0 0.008f
r135 vss_M1_960_416 vss_M1_960_462 4.6
c270 vss_M1_960_416 0 0.0046f
c271 vss_M1_960_462 0 0.0046f
r136 vss_M1_960_462 vss_M1_960_542 8.0
c272 vss_M1_960_462 0 0.008f
c273 vss_M1_960_542 0 0.008f
r137 vss_M1_960_542 vss_M1_960_588 4.6
c274 vss_M1_960_542 0 0.0046f
c275 vss_M1_960_588 0 0.0046f
r138 vss_M1_960_588 vss_M1_960_668 8.0
c276 vss_M1_960_588 0 0.008f
c277 vss_M1_960_668 0 0.008f
r139 vss_M1_960_668 vss_M1_960_748 8.0
c278 vss_M1_960_668 0 0.008f
c279 vss_M1_960_748 0 0.008f
r140 vss_M1_960_748 vss_M1_960_792 4.3999999999999995
c280 vss_M1_960_748 0 0.0044f
c281 vss_M1_960_792 0 0.0044f
r141 net10_M1_1120_132 net10_M1_1120_212 8.0
c282 net10_M1_1120_132 0 0.008f
c283 net10_M1_1120_212 0 0.008f
r142 net10_M1_1120_212 net10_M1_1120_292 8.0
c284 net10_M1_1120_212 0 0.008f
c285 net10_M1_1120_292 0 0.008f
r143 net10_M1_1120_292 net10_M1_1120_336 4.3999999999999995
c286 net10_M1_1120_292 0 0.0044f
c287 net10_M1_1120_336 0 0.0044f
r144 net10_M1_1120_336 net10_M1_1120_416 8.0
c288 net10_M1_1120_336 0 0.008f
c289 net10_M1_1120_416 0 0.008f
r145 net10_M1_1120_416 net10_M1_1120_496 8.0
c290 net10_M1_1120_416 0 0.008f
c291 net10_M1_1120_496 0 0.008f
r146 net10_M1_1120_496 net10_M1_1120_576 8.0
c292 net10_M1_1120_496 0 0.008f
c293 net10_M1_1120_576 0 0.008f
r147 net10_M1_1120_576 net10_M1_1120_588 1.2
c294 net10_M1_1120_576 0 0.0012000000000000001f
c295 net10_M1_1120_588 0 0.0012000000000000001f
r148 net10_M1_1120_462 net10_M1_1120_542 8.0
c296 net10_M1_1120_462 0 0.008f
c297 net10_M1_1120_542 0 0.008f
r149 net10_M1_1120_542 net10_M1_1120_622 8.0
c298 net10_M1_1120_542 0 0.008f
c299 net10_M1_1120_622 0 0.008f
r150 net10_M1_1120_622 net10_M1_1120_702 8.0
c300 net10_M1_1120_622 0 0.008f
c301 net10_M1_1120_702 0 0.008f
r151 net10_M1_1120_702 net10_M1_1120_782 8.0
c302 net10_M1_1120_702 0 0.008f
c303 net10_M1_1120_782 0 0.008f
r152 net10_M1_1120_782 net10_M1_1120_792 1.0
c304 net10_M1_1120_782 0 0.001f
c305 net10_M1_1120_792 0 0.001f
r153 vinp_M1_1760_132 vinp_M1_1760_212 8.0
c306 vinp_M1_1760_132 0 0.008f
c307 vinp_M1_1760_212 0 0.008f
r154 vinp_M1_1760_212 vinp_M1_1760_292 8.0
c308 vinp_M1_1760_212 0 0.008f
c309 vinp_M1_1760_292 0 0.008f
r155 vinp_M1_1760_292 vinp_M1_1760_372 8.0
c310 vinp_M1_1760_292 0 0.008f
c311 vinp_M1_1760_372 0 0.008f
r156 vinp_M1_1760_372 vinp_M1_1760_420 4.8
c312 vinp_M1_1760_372 0 0.0048000000000000004f
c313 vinp_M1_1760_420 0 0.0048000000000000004f
r157 vinp_M1_1760_168 vinp_M1_1760_248 8.0
c314 vinp_M1_1760_168 0 0.008f
c315 vinp_M1_1760_248 0 0.008f
r158 vinp_M1_1760_248 vinp_M1_1760_328 8.0
c316 vinp_M1_1760_248 0 0.008f
c317 vinp_M1_1760_328 0 0.008f
r159 vinp_M1_1760_328 vinp_M1_1760_408 8.0
c318 vinp_M1_1760_328 0 0.008f
c319 vinp_M1_1760_408 0 0.008f
r160 vinp_M1_1760_408 vinp_M1_1760_488 8.0
c320 vinp_M1_1760_408 0 0.008f
c321 vinp_M1_1760_488 0 0.008f
r161 vinp_M1_1760_488 vinp_M1_1760_568 8.0
c322 vinp_M1_1760_488 0 0.008f
c323 vinp_M1_1760_568 0 0.008f
r162 vinp_M1_1760_568 vinp_M1_1760_648 8.0
c324 vinp_M1_1760_568 0 0.008f
c325 vinp_M1_1760_648 0 0.008f
r163 vinp_M1_1760_648 vinp_M1_1760_728 8.0
c326 vinp_M1_1760_648 0 0.008f
c327 vinp_M1_1760_728 0 0.008f
r164 vinp_M1_1760_728 vinp_M1_1760_792 6.4
c328 vinp_M1_1760_728 0 0.0064f
c329 vinp_M1_1760_792 0 0.0064f
r165 net10_M1_1680_132 net10_M1_1680_168 3.5999999999999996
c330 net10_M1_1680_132 0 0.0036f
c331 net10_M1_1680_168 0 0.0036f
r166 net10_M1_1680_168 net10_M1_1680_248 8.0
c332 net10_M1_1680_168 0 0.008f
c333 net10_M1_1680_248 0 0.008f
r167 net10_M1_1680_248 net10_M1_1680_328 8.0
c334 net10_M1_1680_248 0 0.008f
c335 net10_M1_1680_328 0 0.008f
r168 net10_M1_1680_328 net10_M1_1680_336 0.8
c336 net10_M1_1680_328 0 0.0008f
c337 net10_M1_1680_336 0 0.0008f
r169 net10_M1_1680_336 net10_M1_1680_416 8.0
c338 net10_M1_1680_336 0 0.008f
c339 net10_M1_1680_416 0 0.008f
r170 net10_M1_1680_416 net10_M1_1680_462 4.6
c340 net10_M1_1680_416 0 0.0046f
c341 net10_M1_1680_462 0 0.0046f
r171 net10_M1_1680_462 net10_M1_1680_542 8.0
c342 net10_M1_1680_462 0 0.008f
c343 net10_M1_1680_542 0 0.008f
r172 net10_M1_1680_542 net10_M1_1680_588 4.6
c344 net10_M1_1680_542 0 0.0046f
c345 net10_M1_1680_588 0 0.0046f
r173 net10_M1_1680_588 net10_M1_1680_668 8.0
c346 net10_M1_1680_588 0 0.008f
c347 net10_M1_1680_668 0 0.008f
r174 net10_M1_1680_668 net10_M1_1680_748 8.0
c348 net10_M1_1680_668 0 0.008f
c349 net10_M1_1680_748 0 0.008f
r175 net10_M1_1680_748 net10_M1_1680_792 4.3999999999999995
c350 net10_M1_1680_748 0 0.0044f
c351 net10_M1_1680_792 0 0.0044f
r176 net8_M1_1840_132 net8_M1_1840_212 8.0
c352 net8_M1_1840_132 0 0.008f
c353 net8_M1_1840_212 0 0.008f
r177 net8_M1_1840_212 net8_M1_1840_252 4.0
c354 net8_M1_1840_212 0 0.004f
c355 net8_M1_1840_252 0 0.004f
r178 net8_M1_1840_252 net8_M1_1840_332 8.0
c356 net8_M1_1840_252 0 0.008f
c357 net8_M1_1840_332 0 0.008f
r179 net8_M1_1840_332 net8_M1_1840_336 0.4
c358 net8_M1_1840_332 0 0.0004f
c359 net8_M1_1840_336 0 0.0004f
r180 net8_M1_1840_336 net8_M1_1840_416 8.0
c360 net8_M1_1840_336 0 0.008f
c361 net8_M1_1840_416 0 0.008f
r181 net8_M1_1840_416 net8_M1_1840_462 4.6
c362 net8_M1_1840_416 0 0.0046f
c363 net8_M1_1840_462 0 0.0046f
r182 net8_M1_1840_462 net8_M1_1840_542 8.0
c364 net8_M1_1840_462 0 0.008f
c365 net8_M1_1840_542 0 0.008f
r183 net8_M1_1840_542 net8_M1_1840_588 4.6
c366 net8_M1_1840_542 0 0.0046f
c367 net8_M1_1840_588 0 0.0046f
r184 net8_M1_1840_588 net8_M1_1840_668 8.0
c368 net8_M1_1840_588 0 0.008f
c369 net8_M1_1840_668 0 0.008f
r185 net8_M1_1840_668 net8_M1_1840_748 8.0
c370 net8_M1_1840_668 0 0.008f
c371 net8_M1_1840_748 0 0.008f
r186 net8_M1_1840_748 net8_M1_1840_792 4.3999999999999995
c372 net8_M1_1840_748 0 0.0044f
c373 net8_M1_1840_792 0 0.0044f
r187 vinn_M1_2400_132 vinn_M1_2400_212 8.0
c374 vinn_M1_2400_132 0 0.008f
c375 vinn_M1_2400_212 0 0.008f
r188 vinn_M1_2400_212 vinn_M1_2400_292 8.0
c376 vinn_M1_2400_212 0 0.008f
c377 vinn_M1_2400_292 0 0.008f